[General]
num-rngs = 1
seed-set = ${N=0}

[Config RandomGeometricGraph]
network = RGG
**.totalNodes = 15
*.rc = ${ R=0.1..0.37 step 0.03}
**.seednum = ${N}
*.l = ${ L=0.1..0.3 step 0.05}

sim-time-limit = 5s